<routes>
        <vType id="typeWE" accel="0.8" decel="4.5" sigma="0.5" length="5" minGap="2.5" maxSpeed="16.67" guiShape="passenger"/>
        <vType id="typeEW" accel="0.8" decel="4.5" sigma="0.5" length="7" minGap="3" maxSpeed="25" guiShape="emergency"/>
        <vType id="typeNE" accel="0.8" decel="4.5" sigma="0.5" length="5" minGap="2.5" maxSpeed="16.67" guiShape="passenger"/>
        <vType id="typeEN" accel="0.8" decel="4.5" sigma="0.5" length="5" minGap="2.5" maxSpeed="16.67" guiShape="passenger"/>
        <vType id="typeNW" accel="0.8" decel="4.5" sigma="0.5" length="5" minGap="2.5" maxSpeed="16.67" guiShape="passenger"/>
        <vType id="typeWN" accel="0.8" decel="4.5" sigma="0.5" length="5" minGap="2.5" maxSpeed="16.67" guiShape="passenger"/>
        <vType id="typeEE" accel="0.8" decel="4.5" sigma="0.5" length="5" minGap="2.5" maxSpeed="16.67" guiShape="passenger"/>

        <route id="right" edges="e10 e9 e8" />
        <route id="left" edges="e1 e2 e3 e4 e5" />
        <route id="up" edges="e10 e11 e18 e13" />
        <route id="side" edges="e1 e2 e12 e13" />
        <route id="sides" edges="e14 e16 e5" />
        <route id="curve" edges="e1 e6 e7 e8" />
        <route id="down" edges="e14 e15 e17 e7 e8" />
    <vehicle id="left_0" type="typeWE" route="left" depart="0" color="1,0,0" />
    <vehicle id="right_1" type="typeWE" route="right" depart="1" />
    <vehicle id="down_2" type="typeNE" route="down" depart="1" />
    <vehicle id="up_3" type="typeWN" route="up" depart="1" />
    <vehicle id="up_4" type="typeWN" route="up" depart="2" />
    <vehicle id="curve_5" type="typeEE" route="curve" depart="3" />
    <vehicle id="curve_6" type="typeEE" route="curve" depart="5" />
    <vehicle id="down_7" type="typeNE" route="down" depart="6" />
    <vehicle id="sides_8" type="typeNW" route="sides" depart="9" />
    <vehicle id="up_9" type="typeWN" route="up" depart="12" />
    <vehicle id="side_10" type="typeEN" route="side" depart="13" />
    <vehicle id="down_11" type="typeNE" route="down" depart="14" />
    <vehicle id="up_12" type="typeWN" route="up" depart="17" />
    <vehicle id="right_13" type="typeWE" route="right" depart="18" />
    <vehicle id="up_14" type="typeWN" route="up" depart="18" />
    <vehicle id="side_15" type="typeEN" route="side" depart="19" />
    <vehicle id="curve_16" type="typeEE" route="curve" depart="22" />
    <vehicle id="sides_17" type="typeNW" route="sides" depart="23" />
    <vehicle id="sides_18" type="typeNW" route="sides" depart="29" />
    <vehicle id="right_19" type="typeWE" route="right" depart="32" />
    <vehicle id="curve_20" type="typeEE" route="curve" depart="32" />
    <vehicle id="right_21" type="typeWE" route="right" depart="36" />
    <vehicle id="sides_22" type="typeNW" route="sides" depart="36" />
    <vehicle id="side_23" type="typeEN" route="side" depart="38" />
    <vehicle id="right_24" type="typeWE" route="right" depart="41" />
    <vehicle id="side_25" type="typeEN" route="side" depart="41" />
    <vehicle id="side_26" type="typeEN" route="side" depart="42" />
    <vehicle id="sides_27" type="typeNW" route="sides" depart="42" />
    <vehicle id="down_28" type="typeNE" route="down" depart="46" />
    <vehicle id="curve_29" type="typeEE" route="curve" depart="48" />
    <vehicle id="sides_30" type="typeNW" route="sides" depart="52" />
    <vehicle id="sides_31" type="typeNW" route="sides" depart="53" />
    <vehicle id="down_32" type="typeNE" route="down" depart="56" />
    <vehicle id="right_33" type="typeWE" route="right" depart="58" />
    <vehicle id="down_34" type="typeNE" route="down" depart="59" />
    <vehicle id="curve_35" type="typeEE" route="curve" depart="59" />
    <vehicle id="right_36" type="typeWE" route="right" depart="61" />
    <vehicle id="up_37" type="typeWN" route="up" depart="65" />
    <vehicle id="right_38" type="typeWE" route="right" depart="67" />
    <vehicle id="up_39" type="typeWN" route="up" depart="68" />
    <vehicle id="side_40" type="typeEN" route="side" depart="70" />
    <vehicle id="sides_41" type="typeNW" route="sides" depart="71" />
    <vehicle id="right_42" type="typeWE" route="right" depart="72" />
    <vehicle id="sides_43" type="typeNW" route="sides" depart="72" />
    <vehicle id="curve_44" type="typeEE" route="curve" depart="73" />
    <vehicle id="right_45" type="typeWE" route="right" depart="74" />
    <vehicle id="side_46" type="typeEN" route="side" depart="75" />
    <vehicle id="sides_47" type="typeNW" route="sides" depart="77" />
    <vehicle id="side_48" type="typeEN" route="side" depart="78" />
    <vehicle id="down_49" type="typeNE" route="down" depart="83" />
    <vehicle id="left_50" type="typeWE" route="left" depart="84" color="1,0,0" />
    <vehicle id="side_51" type="typeEN" route="side" depart="85" />
    <vehicle id="up_52" type="typeWN" route="up" depart="85" />
    <vehicle id="curve_53" type="typeEE" route="curve" depart="86" />
    <vehicle id="right_54" type="typeWE" route="right" depart="91" />
    <vehicle id="right_55" type="typeWE" route="right" depart="93" />
    <vehicle id="up_56" type="typeWN" route="up" depart="93" />
    <vehicle id="right_57" type="typeWE" route="right" depart="94" />
    <vehicle id="sides_58" type="typeNW" route="sides" depart="97" />
    <vehicle id="up_59" type="typeWN" route="up" depart="97" />
    <vehicle id="side_60" type="typeEN" route="side" depart="100" />
    <vehicle id="down_61" type="typeNE" route="down" depart="102" />
    <vehicle id="curve_62" type="typeEE" route="curve" depart="102" />
    <vehicle id="right_63" type="typeWE" route="right" depart="104" />
    <vehicle id="up_64" type="typeWN" route="up" depart="116" />
    <vehicle id="right_65" type="typeWE" route="right" depart="118" />
    <vehicle id="sides_66" type="typeNW" route="sides" depart="121" />
    <vehicle id="up_67" type="typeWN" route="up" depart="121" />
    <vehicle id="side_68" type="typeEN" route="side" depart="123" />
    <vehicle id="up_69" type="typeWN" route="up" depart="124" />
    <vehicle id="right_70" type="typeWE" route="right" depart="126" />
    <vehicle id="up_71" type="typeWN" route="up" depart="129" />
    <vehicle id="up_72" type="typeWN" route="up" depart="132" />
    <vehicle id="sides_73" type="typeNW" route="sides" depart="136" />
    <vehicle id="right_74" type="typeWE" route="right" depart="138" />
    <vehicle id="up_75" type="typeWN" route="up" depart="138" />
    <vehicle id="right_76" type="typeWE" route="right" depart="140" />
    <vehicle id="left_77" type="typeWE" route="left" depart="142" color="1,0,0" />
    <vehicle id="curve_78" type="typeEE" route="curve" depart="142" />
    <vehicle id="up_79" type="typeWN" route="up" depart="144" />
    <vehicle id="side_80" type="typeEN" route="side" depart="145" />
    <vehicle id="sides_81" type="typeNW" route="sides" depart="146" />
    <vehicle id="sides_82" type="typeNW" route="sides" depart="147" />
    <vehicle id="up_83" type="typeWN" route="up" depart="147" />
    <vehicle id="side_84" type="typeEN" route="side" depart="148" />
    <vehicle id="curve_85" type="typeEE" route="curve" depart="149" />
    <vehicle id="up_86" type="typeWN" route="up" depart="150" />
    <vehicle id="sides_87" type="typeNW" route="sides" depart="151" />
    <vehicle id="up_88" type="typeWN" route="up" depart="151" />
    <vehicle id="right_89" type="typeWE" route="right" depart="152" />
    <vehicle id="right_90" type="typeWE" route="right" depart="155" />
    <vehicle id="curve_91" type="typeEE" route="curve" depart="155" />
    <vehicle id="up_92" type="typeWN" route="up" depart="160" />
    <vehicle id="curve_93" type="typeEE" route="curve" depart="161" />
    <vehicle id="up_94" type="typeWN" route="up" depart="162" />
    <vehicle id="right_95" type="typeWE" route="right" depart="164" />
    <vehicle id="side_96" type="typeEN" route="side" depart="166" />
    <vehicle id="curve_97" type="typeEE" route="curve" depart="166" />
    <vehicle id="up_98" type="typeWN" route="up" depart="167" />
    <vehicle id="curve_99" type="typeEE" route="curve" depart="168" />
    <vehicle id="down_100" type="typeNE" route="down" depart="169" />
    <vehicle id="side_101" type="typeEN" route="side" depart="170" />
    <vehicle id="down_102" type="typeNE" route="down" depart="171" />
    <vehicle id="sides_103" type="typeNW" route="sides" depart="176" />
    <vehicle id="up_104" type="typeWN" route="up" depart="177" />
    <vehicle id="right_105" type="typeWE" route="right" depart="178" />
    <vehicle id="curve_106" type="typeEE" route="curve" depart="182" />
    <vehicle id="right_107" type="typeWE" route="right" depart="183" />
    <vehicle id="right_108" type="typeWE" route="right" depart="188" />
    <vehicle id="curve_109" type="typeEE" route="curve" depart="188" />
    <vehicle id="left_110" type="typeWE" route="left" depart="196" color="1,0,0" />
    <vehicle id="down_111" type="typeNE" route="down" depart="196" />
    <vehicle id="right_112" type="typeWE" route="right" depart="197" />
    <vehicle id="up_113" type="typeWN" route="up" depart="198" />
    <vehicle id="curve_114" type="typeEE" route="curve" depart="198" />
    <vehicle id="left_115" type="typeWE" route="left" depart="201" color="1,0,0" />
    <vehicle id="side_116" type="typeEN" route="side" depart="202" />
    <vehicle id="up_117" type="typeWN" route="up" depart="202" />
    <vehicle id="left_118" type="typeWE" route="left" depart="204" color="1,0,0" />
    <vehicle id="down_119" type="typeNE" route="down" depart="205" />
    <vehicle id="sides_120" type="typeNW" route="sides" depart="206" />
    <vehicle id="side_121" type="typeEN" route="side" depart="207" />
    <vehicle id="right_122" type="typeWE" route="right" depart="211" />
    <vehicle id="up_123" type="typeWN" route="up" depart="211" />
    <vehicle id="up_124" type="typeWN" route="up" depart="212" />
    <vehicle id="up_125" type="typeWN" route="up" depart="213" />
    <vehicle id="right_126" type="typeWE" route="right" depart="215" />
    <vehicle id="up_127" type="typeWN" route="up" depart="219" />
    <vehicle id="side_128" type="typeEN" route="side" depart="220" />
    <vehicle id="down_129" type="typeNE" route="down" depart="222" />
    <vehicle id="right_130" type="typeWE" route="right" depart="226" />
    <vehicle id="up_131" type="typeWN" route="up" depart="229" />
    <vehicle id="curve_132" type="typeEE" route="curve" depart="229" />
    <vehicle id="right_133" type="typeWE" route="right" depart="232" />
    <vehicle id="up_134" type="typeWN" route="up" depart="236" />
    <vehicle id="sides_135" type="typeNW" route="sides" depart="237" />
    <vehicle id="curve_136" type="typeEE" route="curve" depart="239" />
    <vehicle id="curve_137" type="typeEE" route="curve" depart="245" />
    <vehicle id="curve_138" type="typeEE" route="curve" depart="247" />
    <vehicle id="down_139" type="typeNE" route="down" depart="248" />
    <vehicle id="sides_140" type="typeNW" route="sides" depart="249" />
    <vehicle id="side_141" type="typeEN" route="side" depart="257" />
    <vehicle id="left_142" type="typeWE" route="left" depart="258" color="1,0,0" />
    <vehicle id="curve_143" type="typeEE" route="curve" depart="259" />
    <vehicle id="down_144" type="typeNE" route="down" depart="262" />
    <vehicle id="right_145" type="typeWE" route="right" depart="266" />
    <vehicle id="up_146" type="typeWN" route="up" depart="267" />
    <vehicle id="curve_147" type="typeEE" route="curve" depart="271" />
    <vehicle id="down_148" type="typeNE" route="down" depart="272" />
    <vehicle id="sides_149" type="typeNW" route="sides" depart="272" />
    <vehicle id="right_150" type="typeWE" route="right" depart="274" />
    <vehicle id="curve_151" type="typeEE" route="curve" depart="274" />
    <vehicle id="right_152" type="typeWE" route="right" depart="276" />
    <vehicle id="down_153" type="typeNE" route="down" depart="276" />
    <vehicle id="up_154" type="typeWN" route="up" depart="276" />
    <vehicle id="right_155" type="typeWE" route="right" depart="277" />
    <vehicle id="left_156" type="typeWE" route="left" depart="280" color="1,0,0" />
    <vehicle id="down_157" type="typeNE" route="down" depart="280" />
    <vehicle id="sides_158" type="typeNW" route="sides" depart="282" />
    <vehicle id="right_159" type="typeWE" route="right" depart="283" />
    <vehicle id="side_160" type="typeEN" route="side" depart="283" />
    <vehicle id="down_161" type="typeNE" route="down" depart="284" />
    <vehicle id="down_162" type="typeNE" route="down" depart="286" />
    <vehicle id="curve_163" type="typeEE" route="curve" depart="292" />
    <vehicle id="side_164" type="typeEN" route="side" depart="295" />
    <vehicle id="down_165" type="typeNE" route="down" depart="300" />
    <vehicle id="side_166" type="typeEN" route="side" depart="300" />
    <vehicle id="up_167" type="typeWN" route="up" depart="301" />
    <vehicle id="curve_168" type="typeEE" route="curve" depart="302" />
    <vehicle id="left_169" type="typeWE" route="left" depart="303" color="1,0,0" />
    <vehicle id="up_170" type="typeWN" route="up" depart="303" />
    <vehicle id="right_171" type="typeWE" route="right" depart="307" />
    <vehicle id="side_172" type="typeEN" route="side" depart="307" />
    <vehicle id="sides_173" type="typeNW" route="sides" depart="307" />
    <vehicle id="curve_174" type="typeEE" route="curve" depart="308" />
    <vehicle id="sides_175" type="typeNW" route="sides" depart="309" />
    <vehicle id="up_176" type="typeWN" route="up" depart="309" />
    <vehicle id="down_177" type="typeNE" route="down" depart="310" />
    <vehicle id="side_178" type="typeEN" route="side" depart="311" />
    <vehicle id="down_179" type="typeNE" route="down" depart="313" />
    <vehicle id="side_180" type="typeEN" route="side" depart="314" />
    <vehicle id="up_181" type="typeWN" route="up" depart="315" />
    <vehicle id="down_182" type="typeNE" route="down" depart="316" />
    <vehicle id="down_183" type="typeNE" route="down" depart="317" />
    <vehicle id="sides_184" type="typeNW" route="sides" depart="318" />
    <vehicle id="curve_185" type="typeEE" route="curve" depart="318" />
    <vehicle id="up_186" type="typeWN" route="up" depart="319" />
    <vehicle id="up_187" type="typeWN" route="up" depart="321" />
    <vehicle id="down_188" type="typeNE" route="down" depart="329" />
    <vehicle id="curve_189" type="typeEE" route="curve" depart="331" />
    <vehicle id="curve_190" type="typeEE" route="curve" depart="332" />
    <vehicle id="sides_191" type="typeNW" route="sides" depart="334" />
    <vehicle id="down_192" type="typeNE" route="down" depart="339" />
    <vehicle id="sides_193" type="typeNW" route="sides" depart="340" />
    <vehicle id="side_194" type="typeEN" route="side" depart="343" />
    <vehicle id="down_195" type="typeNE" route="down" depart="346" />
    <vehicle id="sides_196" type="typeNW" route="sides" depart="346" />
    <vehicle id="right_197" type="typeWE" route="right" depart="348" />
    <vehicle id="left_198" type="typeWE" route="left" depart="348" color="1,0,0" />
    <vehicle id="side_199" type="typeEN" route="side" depart="350" />
    <vehicle id="right_200" type="typeWE" route="right" depart="354" />
    <vehicle id="side_201" type="typeEN" route="side" depart="358" />
    <vehicle id="side_202" type="typeEN" route="side" depart="359" />
    <vehicle id="side_203" type="typeEN" route="side" depart="360" />
    <vehicle id="down_204" type="typeNE" route="down" depart="362" />
    <vehicle id="side_205" type="typeEN" route="side" depart="362" />
    <vehicle id="down_206" type="typeNE" route="down" depart="363" />
    <vehicle id="left_207" type="typeWE" route="left" depart="366" color="1,0,0" />
    <vehicle id="curve_208" type="typeEE" route="curve" depart="366" />
    <vehicle id="up_209" type="typeWN" route="up" depart="367" />
    <vehicle id="sides_210" type="typeNW" route="sides" depart="369" />
    <vehicle id="curve_211" type="typeEE" route="curve" depart="370" />
    <vehicle id="right_212" type="typeWE" route="right" depart="374" />
    <vehicle id="up_213" type="typeWN" route="up" depart="376" />
    <vehicle id="curve_214" type="typeEE" route="curve" depart="376" />
    <vehicle id="down_215" type="typeNE" route="down" depart="377" />
    <vehicle id="down_216" type="typeNE" route="down" depart="378" />
    <vehicle id="up_217" type="typeWN" route="up" depart="380" />
    <vehicle id="curve_218" type="typeEE" route="curve" depart="380" />
    <vehicle id="curve_219" type="typeEE" route="curve" depart="383" />
    <vehicle id="down_220" type="typeNE" route="down" depart="384" />
    <vehicle id="up_221" type="typeWN" route="up" depart="384" />
    <vehicle id="side_222" type="typeEN" route="side" depart="386" />
    <vehicle id="up_223" type="typeWN" route="up" depart="388" />
    <vehicle id="curve_224" type="typeEE" route="curve" depart="389" />
    <vehicle id="up_225" type="typeWN" route="up" depart="390" />
    <vehicle id="sides_226" type="typeNW" route="sides" depart="392" />
    <vehicle id="sides_227" type="typeNW" route="sides" depart="393" />
    <vehicle id="up_228" type="typeWN" route="up" depart="394" />
    <vehicle id="up_229" type="typeWN" route="up" depart="396" />
    <vehicle id="side_230" type="typeEN" route="side" depart="398" />
    <vehicle id="right_231" type="typeWE" route="right" depart="401" />
    <vehicle id="side_232" type="typeEN" route="side" depart="401" />
    <vehicle id="side_233" type="typeEN" route="side" depart="402" />
    <vehicle id="sides_234" type="typeNW" route="sides" depart="403" />
    <vehicle id="left_235" type="typeWE" route="left" depart="405" color="1,0,0" />
    <vehicle id="down_236" type="typeNE" route="down" depart="405" />
    <vehicle id="down_237" type="typeNE" route="down" depart="406" />
    <vehicle id="left_238" type="typeWE" route="left" depart="407" color="1,0,0" />
    <vehicle id="right_239" type="typeWE" route="right" depart="409" />
    <vehicle id="up_240" type="typeWN" route="up" depart="413" />
    <vehicle id="sides_241" type="typeNW" route="sides" depart="415" />
    <vehicle id="up_242" type="typeWN" route="up" depart="417" />
    <vehicle id="curve_243" type="typeEE" route="curve" depart="418" />
    <vehicle id="curve_244" type="typeEE" route="curve" depart="423" />
    <vehicle id="up_245" type="typeWN" route="up" depart="425" />
    <vehicle id="up_246" type="typeWN" route="up" depart="426" />
    <vehicle id="left_247" type="typeWE" route="left" depart="427" color="1,0,0" />
    <vehicle id="curve_248" type="typeEE" route="curve" depart="429" />
    <vehicle id="down_249" type="typeNE" route="down" depart="431" />
    <vehicle id="down_250" type="typeNE" route="down" depart="433" />
    <vehicle id="up_251" type="typeWN" route="up" depart="434" />
    <vehicle id="right_252" type="typeWE" route="right" depart="436" />
    <vehicle id="side_253" type="typeEN" route="side" depart="437" />
    <vehicle id="curve_254" type="typeEE" route="curve" depart="437" />
    <vehicle id="curve_255" type="typeEE" route="curve" depart="439" />
    <vehicle id="down_256" type="typeNE" route="down" depart="443" />
    <vehicle id="right_257" type="typeWE" route="right" depart="447" />
    <vehicle id="up_258" type="typeWN" route="up" depart="447" />
    <vehicle id="up_259" type="typeWN" route="up" depart="448" />
    <vehicle id="curve_260" type="typeEE" route="curve" depart="452" />
    <vehicle id="up_261" type="typeWN" route="up" depart="454" />
    <vehicle id="up_262" type="typeWN" route="up" depart="457" />
    <vehicle id="left_263" type="typeWE" route="left" depart="458" color="1,0,0" />
    <vehicle id="up_264" type="typeWN" route="up" depart="458" />
    <vehicle id="right_265" type="typeWE" route="right" depart="462" />
    <vehicle id="side_266" type="typeEN" route="side" depart="468" />
    <vehicle id="down_267" type="typeNE" route="down" depart="470" />
    <vehicle id="down_268" type="typeNE" route="down" depart="473" />
    <vehicle id="down_269" type="typeNE" route="down" depart="474" />
    <vehicle id="sides_270" type="typeNW" route="sides" depart="475" />
    <vehicle id="up_271" type="typeWN" route="up" depart="480" />
    <vehicle id="down_272" type="typeNE" route="down" depart="481" />
    <vehicle id="curve_273" type="typeEE" route="curve" depart="481" />
    <vehicle id="curve_274" type="typeEE" route="curve" depart="485" />
    <vehicle id="sides_275" type="typeNW" route="sides" depart="486" />
    <vehicle id="side_276" type="typeEN" route="side" depart="487" />
    <vehicle id="right_277" type="typeWE" route="right" depart="489" />
    <vehicle id="right_278" type="typeWE" route="right" depart="490" />
    <vehicle id="right_279" type="typeWE" route="right" depart="493" />
    <vehicle id="side_280" type="typeEN" route="side" depart="494" />
    <vehicle id="sides_281" type="typeNW" route="sides" depart="495" />
    <vehicle id="side_282" type="typeEN" route="side" depart="497" />
    <vehicle id="up_283" type="typeWN" route="up" depart="498" />
    <vehicle id="sides_284" type="typeNW" route="sides" depart="499" />
    <vehicle id="side_285" type="typeEN" route="side" depart="502" />
    <vehicle id="sides_286" type="typeNW" route="sides" depart="502" />
    <vehicle id="curve_287" type="typeEE" route="curve" depart="503" />
    <vehicle id="down_288" type="typeNE" route="down" depart="506" />
    <vehicle id="curve_289" type="typeEE" route="curve" depart="509" />
    <vehicle id="up_290" type="typeWN" route="up" depart="517" />
    <vehicle id="side_291" type="typeEN" route="side" depart="519" />
    <vehicle id="left_292" type="typeWE" route="left" depart="522" color="1,0,0" />
    <vehicle id="sides_293" type="typeNW" route="sides" depart="526" />
    <vehicle id="down_294" type="typeNE" route="down" depart="530" />
    <vehicle id="right_295" type="typeWE" route="right" depart="533" />
    <vehicle id="left_296" type="typeWE" route="left" depart="534" color="1,0,0" />
    <vehicle id="down_297" type="typeNE" route="down" depart="534" />
    <vehicle id="sides_298" type="typeNW" route="sides" depart="536" />
    <vehicle id="up_299" type="typeWN" route="up" depart="536" />
    <vehicle id="right_300" type="typeWE" route="right" depart="538" />
    <vehicle id="curve_301" type="typeEE" route="curve" depart="539" />
    <vehicle id="right_302" type="typeWE" route="right" depart="543" />
    <vehicle id="side_303" type="typeEN" route="side" depart="546" />
    <vehicle id="left_304" type="typeWE" route="left" depart="549" color="1,0,0" />
    <vehicle id="down_305" type="typeNE" route="down" depart="552" />
    <vehicle id="side_306" type="typeEN" route="side" depart="552" />
    <vehicle id="up_307" type="typeWN" route="up" depart="552" />
    <vehicle id="up_308" type="typeWN" route="up" depart="557" />
    <vehicle id="right_309" type="typeWE" route="right" depart="558" />
    <vehicle id="curve_310" type="typeEE" route="curve" depart="558" />
    <vehicle id="sides_311" type="typeNW" route="sides" depart="562" />
    <vehicle id="up_312" type="typeWN" route="up" depart="564" />
    <vehicle id="curve_313" type="typeEE" route="curve" depart="564" />
    <vehicle id="side_314" type="typeEN" route="side" depart="565" />
    <vehicle id="up_315" type="typeWN" route="up" depart="565" />
    <vehicle id="sides_316" type="typeNW" route="sides" depart="566" />
    <vehicle id="right_317" type="typeWE" route="right" depart="571" />
    <vehicle id="curve_318" type="typeEE" route="curve" depart="572" />
    <vehicle id="left_319" type="typeWE" route="left" depart="576" color="1,0,0" />
    <vehicle id="sides_320" type="typeNW" route="sides" depart="581" />
    <vehicle id="down_321" type="typeNE" route="down" depart="582" />
    <vehicle id="sides_322" type="typeNW" route="sides" depart="582" />
    <vehicle id="up_323" type="typeWN" route="up" depart="582" />
    <vehicle id="curve_324" type="typeEE" route="curve" depart="584" />
    <vehicle id="sides_325" type="typeNW" route="sides" depart="585" />
    <vehicle id="curve_326" type="typeEE" route="curve" depart="585" />
    <vehicle id="down_327" type="typeNE" route="down" depart="587" />
    <vehicle id="down_328" type="typeNE" route="down" depart="589" />
    <vehicle id="up_329" type="typeWN" route="up" depart="591" />
    <vehicle id="right_330" type="typeWE" route="right" depart="592" />
    <vehicle id="left_331" type="typeWE" route="left" depart="593" color="1,0,0" />
    <vehicle id="right_332" type="typeWE" route="right" depart="594" />
    <vehicle id="sides_333" type="typeNW" route="sides" depart="597" />
    <vehicle id="side_334" type="typeEN" route="side" depart="599" />
    <vehicle id="left_335" type="typeWE" route="left" depart="601" color="1,0,0" />
    <vehicle id="sides_336" type="typeNW" route="sides" depart="608" />
    <vehicle id="right_337" type="typeWE" route="right" depart="612" />
    <vehicle id="left_338" type="typeWE" route="left" depart="614" color="1,0,0" />
    <vehicle id="curve_339" type="typeEE" route="curve" depart="614" />
    <vehicle id="down_340" type="typeNE" route="down" depart="615" />
    <vehicle id="up_341" type="typeWN" route="up" depart="615" />
    <vehicle id="up_342" type="typeWN" route="up" depart="617" />
    <vehicle id="side_343" type="typeEN" route="side" depart="621" />
    <vehicle id="left_344" type="typeWE" route="left" depart="622" color="1,0,0" />
    <vehicle id="up_345" type="typeWN" route="up" depart="622" />
    <vehicle id="down_346" type="typeNE" route="down" depart="623" />
    <vehicle id="down_347" type="typeNE" route="down" depart="627" />
    <vehicle id="side_348" type="typeEN" route="side" depart="627" />
    <vehicle id="side_349" type="typeEN" route="side" depart="630" />
    <vehicle id="sides_350" type="typeNW" route="sides" depart="633" />
    <vehicle id="curve_351" type="typeEE" route="curve" depart="635" />
    <vehicle id="right_352" type="typeWE" route="right" depart="636" />
    <vehicle id="up_353" type="typeWN" route="up" depart="636" />
    <vehicle id="right_354" type="typeWE" route="right" depart="637" />
    <vehicle id="up_355" type="typeWN" route="up" depart="637" />
    <vehicle id="up_356" type="typeWN" route="up" depart="641" />
    <vehicle id="side_357" type="typeEN" route="side" depart="642" />
    <vehicle id="right_358" type="typeWE" route="right" depart="643" />
    <vehicle id="down_359" type="typeNE" route="down" depart="645" />
    <vehicle id="side_360" type="typeEN" route="side" depart="647" />
    <vehicle id="side_361" type="typeEN" route="side" depart="648" />
    <vehicle id="sides_362" type="typeNW" route="sides" depart="649" />
    <vehicle id="up_363" type="typeWN" route="up" depart="649" />
    <vehicle id="down_364" type="typeNE" route="down" depart="657" />
    <vehicle id="side_365" type="typeEN" route="side" depart="658" />
    <vehicle id="side_366" type="typeEN" route="side" depart="659" />
    <vehicle id="sides_367" type="typeNW" route="sides" depart="661" />
    <vehicle id="up_368" type="typeWN" route="up" depart="661" />
    <vehicle id="left_369" type="typeWE" route="left" depart="663" color="1,0,0" />
    <vehicle id="up_370" type="typeWN" route="up" depart="663" />
    <vehicle id="side_371" type="typeEN" route="side" depart="664" />
    <vehicle id="curve_372" type="typeEE" route="curve" depart="665" />
    <vehicle id="side_373" type="typeEN" route="side" depart="666" />
    <vehicle id="up_374" type="typeWN" route="up" depart="668" />
    <vehicle id="sides_375" type="typeNW" route="sides" depart="669" />
    <vehicle id="sides_376" type="typeNW" route="sides" depart="670" />
    <vehicle id="sides_377" type="typeNW" route="sides" depart="671" />
    <vehicle id="down_378" type="typeNE" route="down" depart="672" />
    <vehicle id="curve_379" type="typeEE" route="curve" depart="672" />
    <vehicle id="down_380" type="typeNE" route="down" depart="674" />
    <vehicle id="up_381" type="typeWN" route="up" depart="674" />
    <vehicle id="side_382" type="typeEN" route="side" depart="675" />
    <vehicle id="up_383" type="typeWN" route="up" depart="675" />
    <vehicle id="sides_384" type="typeNW" route="sides" depart="676" />
    <vehicle id="side_385" type="typeEN" route="side" depart="677" />
    <vehicle id="sides_386" type="typeNW" route="sides" depart="678" />
    <vehicle id="right_387" type="typeWE" route="right" depart="681" />
    <vehicle id="curve_388" type="typeEE" route="curve" depart="681" />
    <vehicle id="curve_389" type="typeEE" route="curve" depart="690" />
    <vehicle id="left_390" type="typeWE" route="left" depart="691" color="1,0,0" />
    <vehicle id="right_391" type="typeWE" route="right" depart="692" />
    <vehicle id="down_392" type="typeNE" route="down" depart="693" />
    <vehicle id="down_393" type="typeNE" route="down" depart="696" />
    <vehicle id="side_394" type="typeEN" route="side" depart="697" />
    <vehicle id="down_395" type="typeNE" route="down" depart="705" />
    <vehicle id="sides_396" type="typeNW" route="sides" depart="707" />
    <vehicle id="side_397" type="typeEN" route="side" depart="708" />
    <vehicle id="up_398" type="typeWN" route="up" depart="710" />
    <vehicle id="sides_399" type="typeNW" route="sides" depart="715" />
    <vehicle id="up_400" type="typeWN" route="up" depart="715" />