<edges>
	<edge id="e1" from="1" to="2" priority="60" numLanes="3" speed="14.0"/>
	<edge id="e2" from="2" to="3" priority="60" numLanes="3" speed="14.0"/>
	<edge id="e3" from="3" to="4" priority="60" numLanes="3" speed="14.0"/>
	<edge id="e4" from="4" to="5" priority="50" numLanes="3" speed="14.0"/>
	<edge id="e5" from="5" to="6" priority="50" numLanes="3" speed="14.0"/>
	

	<edge id="e6" from="2" to="7" priority="40" numLanes="2" speed="14.0"/>
	<edge id="e7" from="7" to="9" priority="35" numLanes="2" speed="14.0"/>

	<edge id="e8" from="9" to="8" priority="35" numLanes="3" speed="14.0"/>
	<edge id="e9" from="10" to="9" priority="40" numLanes="2" speed="14.0"/>
	<edge id="e10" from="11" to="10" priority="35" numLanes="3" speed="14.0"/>

	<edge id="e11" from="10" to="4" priority="60" numLanes="2" speed="14.0"/>
	<edge id="e12" from="3" to="12" priority="40" numLanes="2" speed="14.0"/>
	<edge id="e13" from="12" to="13" priority="40" numLanes="2" speed="14.0"/>
	<edge id="e14" from="13" to="14" priority="40" numLanes="2" speed="14.0"/>

	<edge id="e15" from="14" to="4" priority="60" numLanes="2" speed="14.0"/>
	<edge id="e16" from="14" to="5" priority="40" numLanes="2" speed="14.0"/>
	<edge id="e17" from="4" to="7" priority="50" numLanes="2" speed="14.0"/>
	<edge id="e18" from="4" to="12" priority="60" numLanes="2" speed="14.0"/>
	

</edges>