<?xml version="1.0" encoding="UTF-8"?>

<!-- generated on 2021-12-14 17:41:27 by Eclipse SUMO netconvert Version 1.10.0
<configuration xmlns:xsi="http://www.w3.org/2001/XMLSchema-instance" xsi:noNamespaceSchemaLocation="http://sumo.dlr.de/xsd/netconvertConfiguration.xsd">

    <input>
        <node-files value="pro.nod.xml"/>
        <edge-files value="pro.edg.xml"/>
        <connection-files value="pro.con.xml"/>
    </input>

    <output>
        <output-file value="pro.net.xml"/>
    </output>

    <report>
        <aggregate-warnings value="5"/>
    </report>

</configuration>
-->

<net version="1.9" junctionCornerDetail="5" limitTurnSpeed="5.50" xmlns:xsi="http://www.w3.org/2001/XMLSchema-instance" xsi:noNamespaceSchemaLocation="http://sumo.dlr.de/xsd/net_file.xsd">

    <location netOffset="-0.65,-60.00" convBoundary="0.00,0.00,978.35,354.00" origBoundary="0.65,60.00,979.00,414.00" projParameter="!"/>

    <edge id=":10_0" function="internal">
        <lane id=":10_0_0" index="0" speed="14.00" length="38.29" shape="188.35,-8.00 226.50,-4.80"/>
        <lane id=":10_0_1" index="1" speed="14.00" length="38.29" shape="188.35,-4.80 226.50,-1.60"/>
    </edge>
    <edge id=":10_2" function="internal">
        <lane id=":10_2_0" index="0" speed="14.00" length="38.51" shape="188.35,-4.80 199.20,-3.97 209.17,-1.99 218.16,0.39 226.07,2.41"/>
        <lane id=":10_2_1" index="1" speed="14.00" length="37.83" shape="188.35,-1.60 199.09,-0.78 208.83,1.17 217.59,3.53 225.39,5.54"/>
    </edge>
    <edge id=":12_0" function="internal">
        <lane id=":12_0_0" index="0" speed="9.55" length="9.90" shape="449.19,216.38 446.55,218.69 444.66,220.73 443.53,222.48 443.15,223.95"/>
        <lane id=":12_0_1" index="1" speed="10.76" length="12.71" shape="447.18,213.90 444.01,216.72 441.76,219.34 440.40,221.75 439.95,223.95"/>
    </edge>
    <edge id=":12_2" function="internal">
        <lane id=":12_2_0" index="0" speed="14.00" length="11.96" shape="443.07,211.97 443.15,223.95"/>
        <lane id=":12_2_1" index="1" speed="14.00" length="11.96" shape="439.87,212.01 439.95,223.95"/>
    </edge>
    <edge id=":13_0" function="internal">
        <lane id=":13_0_0" index="0" speed="3.67" length="4.67" shape="439.95,354.00 439.18,355.22 438.38,355.63 437.58,355.25 436.75,354.07"/>
    </edge>
    <edge id=":14_0" function="internal">
        <lane id=":14_0_0" index="0" speed="12.77" length="11.69" shape="429.71,260.91 429.14,257.69 427.84,255.75 425.90,254.06 423.40,251.59"/>
        <lane id=":14_0_1" index="1" speed="13.16" length="12.44" shape="429.71,260.91 429.55,257.24 429.14,254.67 428.05,252.38 425.83,249.51"/>
    </edge>
    <edge id=":14_2" function="internal">
        <lane id=":14_2_0" index="0" speed="14.00" length="12.70" shape="429.71,260.91 429.64,248.13"/>
        <lane id=":14_2_1" index="1" speed="14.00" length="12.70" shape="432.90,260.78 432.84,248.16"/>
    </edge>
    <edge id=":2_0" function="internal">
        <lane id=":2_0_0" index="0" speed="14.00" length="84.96" shape="805.24,61.21 720.49,62.01"/>
        <lane id=":2_0_1" index="1" speed="14.00" length="84.96" shape="805.40,58.01 720.45,58.81"/>
        <lane id=":2_0_2" index="2" speed="14.00" length="84.96" shape="805.57,54.82 720.41,55.61"/>
    </edge>
    <edge id=":2_3" function="internal">
        <lane id=":2_3_0" index="0" speed="14.00" length="85.07" shape="805.57,54.82 720.51,52.08"/>
        <lane id=":2_3_1" index="1" speed="14.00" length="85.07" shape="805.57,54.82 720.74,48.88"/>
    </edge>
    <edge id=":3_0" function="internal">
        <lane id=":3_0_0" index="0" speed="12.82" length="11.86" shape="640.13,63.00 636.85,63.49 634.85,64.76 633.09,66.69 630.53,69.16"/>
        <lane id=":3_0_1" index="1" speed="13.20" length="12.60" shape="640.13,63.00 636.41,63.07 633.81,63.43 631.47,64.49 628.51,66.67"/>
    </edge>
    <edge id=":3_2" function="internal">
        <lane id=":3_2_0" index="0" speed="14.00" length="12.88" shape="640.13,63.00 627.18,62.87"/>
        <lane id=":3_2_1" index="1" speed="14.00" length="12.88" shape="640.09,59.80 627.21,59.67"/>
        <lane id=":3_2_2" index="2" speed="14.00" length="12.88" shape="640.05,56.60 627.24,56.47"/>
    </edge>
    <edge id=":4_0" function="internal">
        <lane id=":4_0_0" index="0" speed="14.00" length="19.63" shape="446.41,61.10 425.86,61.12"/>
        <lane id=":4_0_1" index="1" speed="14.00" length="19.63" shape="445.50,57.89 425.87,57.92"/>
        <lane id=":4_0_2" index="2" speed="14.00" length="19.63" shape="444.59,54.68 425.88,54.72"/>
    </edge>
    <edge id=":4_3" function="internal">
        <lane id=":4_3_0" index="0" speed="12.17" length="28.31" shape="425.91,45.82 432.57,48.36 437.36,52.69 440.27,58.79 441.32,66.68"/>
        <lane id=":4_3_1" index="1" speed="11.10" length="23.39" shape="425.90,49.09 431.17,51.17 434.97,54.81 437.28,59.99 438.12,66.72"/>
    </edge>
    <edge id=":4_5" function="internal">
        <lane id=":4_5_0" index="0" speed="11.87" length="24.90" shape="431.41,66.80 432.15,59.00 434.19,52.97 437.53,48.70 442.18,46.21"/>
        <lane id=":4_5_1" index="1" speed="10.86" length="20.73" shape="434.62,66.76 435.20,60.06 436.80,54.92 439.42,51.33 443.06,49.29"/>
    </edge>
    <edge id=":5_0" function="internal">
        <lane id=":5_0_0" index="0" speed="9.90" length="9.90" shape="267.01,68.99 264.62,66.37 262.54,64.50 260.80,63.36 259.38,62.96"/>
        <lane id=":5_0_1" index="1" speed="11.10" length="12.57" shape="269.44,66.91 266.55,63.81 263.92,61.59 261.55,60.24 259.44,59.76"/>
    </edge>
    <edge id=":5_2" function="internal">
        <lane id=":5_2_0" index="0" speed="14.00" length="11.79" shape="271.27,62.89 259.38,62.96"/>
        <lane id=":5_2_1" index="1" speed="14.00" length="11.79" shape="271.23,59.69 259.44,59.76"/>
        <lane id=":5_2_2" index="2" speed="14.00" length="11.79" shape="271.20,56.49 259.50,56.56"/>
    </edge>
    <edge id=":7_0" function="internal">
        <lane id=":7_0_0" index="0" speed="14.00" length="0.51" shape="489.12,32.45 488.97,32.38 488.92,32.30 488.95,32.21 489.07,32.10"/>
    </edge>
    <edge id=":7_1" function="internal">
        <lane id=":7_1_0" index="0" speed="14.00" length="5.04" shape="485.42,33.05 488.66,28.93"/>
        <lane id=":7_1_1" index="1" speed="14.00" length="5.04" shape="486.35,36.11 489.07,32.10"/>
    </edge>
    <edge id=":9_0" function="internal">
        <lane id=":9_0_0" index="0" speed="14.00" length="69.28" shape="744.21,-4.80 813.44,-7.95"/>
        <lane id=":9_0_1" index="1" speed="14.00" length="69.28" shape="744.21,-1.60 813.41,-4.75"/>
    </edge>
    <edge id=":9_2" function="internal">
        <lane id=":9_2_0" index="0" speed="14.00" length="69.17" shape="744.40,2.01 757.27,0.49 777.01,-1.83 797.70,-3.92 813.41,-4.75"/>
        <lane id=":9_2_1" index="1" speed="14.00" length="69.17" shape="744.74,5.19 757.55,3.67 777.16,1.36 797.72,-0.72 813.37,-1.55"/>
    </edge>

    <edge id="e1" from="1" to="2" priority="60">
        <lane id="e1_0" index="0" speed="14.00" length="170.92" shape="975.94,69.99 805.24,61.21"/>
        <lane id="e1_1" index="1" speed="14.00" length="170.92" shape="976.10,66.79 805.40,58.01"/>
        <lane id="e1_2" index="2" speed="14.00" length="170.92" shape="976.27,63.60 805.57,54.82"/>
    </edge>
    <edge id="e10" from="11" to="10" priority="35">
        <lane id="e10_0" index="0" speed="14.00" length="188.35" shape="0.00,-8.00 188.35,-8.00"/>
        <lane id="e10_1" index="1" speed="14.00" length="188.35" shape="0.00,-4.80 188.35,-4.80"/>
        <lane id="e10_2" index="2" speed="14.00" length="188.35" shape="0.00,-1.60 188.35,-1.60"/>
    </edge>
    <edge id="e11" from="10" to="4" priority="60">
        <lane id="e11_0" index="0" speed="14.00" length="204.84" shape="226.07,2.41 425.91,45.82"/>
        <lane id="e11_1" index="1" speed="14.00" length="204.84" shape="225.39,5.54 425.90,49.09"/>
    </edge>
    <edge id="e12" from="3" to="12" priority="40">
        <lane id="e12_0" index="0" speed="14.00" length="233.57" shape="630.53,69.16 449.19,216.38"/>
        <lane id="e12_1" index="1" speed="14.00" length="233.57" shape="628.51,66.67 447.18,213.90"/>
    </edge>
    <edge id="e13" from="12" to="13" priority="40">
        <lane id="e13_0" index="0" speed="14.00" length="130.05" shape="443.15,223.95 443.15,354.00"/>
        <lane id="e13_1" index="1" speed="14.00" length="130.05" shape="439.95,223.95 439.95,354.00"/>
    </edge>
    <edge id="e14" from="13" to="14" priority="40">
        <lane id="e14_0" index="0" speed="14.00" length="93.37" shape="433.55,354.20 429.71,260.91"/>
        <lane id="e14_1" index="1" speed="14.00" length="93.37" shape="436.75,354.07 432.90,260.78"/>
    </edge>
    <edge id="e15" from="14" to="4" priority="60">
        <lane id="e15_0" index="0" speed="14.00" length="181.37" shape="429.64,248.13 431.41,66.80"/>
        <lane id="e15_1" index="1" speed="14.00" length="181.37" shape="432.84,248.16 434.62,66.76"/>
    </edge>
    <edge id="e16" from="14" to="5" priority="40">
        <lane id="e16_0" index="0" speed="14.00" length="240.42" shape="423.40,251.59 267.01,68.99"/>
        <lane id="e16_1" index="1" speed="14.00" length="240.42" shape="425.83,249.51 269.44,66.91"/>
    </edge>
    <edge id="e17" from="4" to="7" priority="50">
        <lane id="e17_0" index="0" speed="14.00" length="45.23" shape="442.18,46.21 485.42,33.05"/>
        <lane id="e17_1" index="1" speed="14.00" length="45.23" shape="443.06,49.29 486.35,36.11"/>
    </edge>
    <edge id="e18" from="4" to="12" priority="60">
        <lane id="e18_0" index="0" speed="14.00" length="145.30" shape="441.32,66.68 443.07,211.97"/>
        <lane id="e18_1" index="1" speed="14.00" length="145.30" shape="438.12,66.72 439.87,212.01"/>
    </edge>
    <edge id="e2" from="2" to="3" priority="60">
        <lane id="e2_0" index="0" speed="14.00" length="80.36" shape="720.49,62.01 640.13,63.00"/>
        <lane id="e2_1" index="1" speed="14.00" length="80.36" shape="720.45,58.81 640.09,59.80"/>
        <lane id="e2_2" index="2" speed="14.00" length="80.36" shape="720.41,55.61 640.05,56.60"/>
    </edge>
    <edge id="e3" from="3" to="4" priority="60">
        <lane id="e3_0" index="0" speed="14.00" length="181.72" shape="627.18,62.87 446.41,61.10"/>
        <lane id="e3_1" index="1" speed="14.00" length="181.72" shape="627.21,59.67 445.50,57.89"/>
        <lane id="e3_2" index="2" speed="14.00" length="181.72" shape="627.24,56.47 444.59,54.68"/>
    </edge>
    <edge id="e4" from="4" to="5" priority="50">
        <lane id="e4_0" index="0" speed="14.00" length="154.65" shape="425.86,61.12 271.27,62.89"/>
        <lane id="e4_1" index="1" speed="14.00" length="154.65" shape="425.87,57.92 271.23,59.69"/>
        <lane id="e4_2" index="2" speed="14.00" length="154.65" shape="425.88,54.72 271.20,56.49"/>
    </edge>
    <edge id="e5" from="5" to="6" priority="50">
        <lane id="e5_0" index="0" speed="14.00" length="259.58" shape="259.38,62.96 -0.15,58.00"/>
        <lane id="e5_1" index="1" speed="14.00" length="259.58" shape="259.44,59.76 -0.09,54.80"/>
        <lane id="e5_2" index="2" speed="14.00" length="259.58" shape="259.50,56.56 -0.03,51.60"/>
    </edge>
    <edge id="e6" from="2" to="7" priority="40">
        <lane id="e6_0" index="0" speed="14.00" length="231.88" shape="720.51,52.08 489.54,35.69"/>
        <lane id="e6_1" index="1" speed="14.00" length="231.88" shape="720.74,48.88 489.12,32.45"/>
    </edge>
    <edge id="e7" from="7" to="9" priority="35">
        <lane id="e7_0" index="0" speed="14.00" length="257.12" shape="488.66,28.93 744.40,2.01"/>
        <lane id="e7_1" index="1" speed="14.00" length="257.12" shape="489.07,32.10 744.74,5.19"/>
    </edge>
    <edge id="e8" from="9" to="8" priority="35">
        <lane id="e8_0" index="0" speed="14.00" length="165.01" shape="813.44,-7.95 978.44,-6.00"/>
        <lane id="e8_1" index="1" speed="14.00" length="165.01" shape="813.41,-4.75 978.41,-2.80"/>
        <lane id="e8_2" index="2" speed="14.00" length="165.01" shape="813.37,-1.55 978.37,0.40"/>
    </edge>
    <edge id="e9" from="10" to="9" priority="40">
        <lane id="e9_0" index="0" speed="14.00" length="517.71" shape="226.50,-4.80 744.21,-4.80"/>
        <lane id="e9_1" index="1" speed="14.00" length="517.71" shape="226.50,-1.60 744.21,-1.60"/>
    </edge>

    <tlLogic id="4" type="static" programID="0" offset="0">
        <phase duration="27" state="GGGrrrr"/>
        <phase duration="3"  state="yyyrrrr"/>
        <phase duration="27" state="rrrGGrr"/>
        <phase duration="3"  state="rrryyrr"/>
        
    </tlLogic>

    <junction id="1" type="dead_end" x="976.35" y="62.00" incLanes="" intLanes="" shape="976.35,62.00 975.86,71.59"/>
    <junction id="10" type="priority" x="192.35" y="0.00" incLanes="e10_0 e10_1 e10_2" intLanes=":10_0_0 :10_0_1 :10_2_0 :10_2_1" shape="225.05,7.10 226.41,0.85 226.50,0.00 226.50,-6.40 188.35,-9.60 188.35,0.00 196.29,0.25 202.11,0.96 206.86,2.06 211.57,3.50 217.29,5.20">
        <request index="0" response="0000" foes="0000" cont="0"/>
        <request index="1" response="0000" foes="0000" cont="0"/>
        <request index="2" response="0000" foes="0000" cont="0"/>
        <request index="3" response="0000" foes="0000" cont="0"/>
    </junction>
    <junction id="11" type="dead_end" x="0.00" y="0.00" incLanes="" intLanes="" shape="0.00,0.00 0.00,-9.60"/>
    <junction id="12" type="priority" x="438.35" y="219.00" incLanes="e12_0 e12_1 e18_0 e18_1" intLanes=":12_0_0 :12_0_1 :12_2_0 :12_2_1" shape="438.35,223.95 444.75,223.95 445.36,222.40 446.11,221.42 447.17,220.29 448.54,219.03 450.20,217.62 446.17,212.65 445.34,213.11 445.05,213.08 444.84,212.87 444.71,212.50 444.67,211.95 438.27,212.03">
        <request index="0" response="1100" foes="1100" cont="0"/>
        <request index="1" response="1100" foes="1100" cont="0"/>
        <request index="2" response="0000" foes="0011" cont="0"/>
        <request index="3" response="0000" foes="0011" cont="0"/>
    </junction>
    <junction id="13" type="priority" x="438.35" y="354.00" incLanes="e13_0 e13_1" intLanes=":13_0_0" shape="438.35,354.00 431.96,354.26 444.75,354.00">
        <request index="0" response="0" foes="0" cont="0"/>
    </junction>
    <junction id="14" type="priority" x="434.35" y="257.00" incLanes="e14_0 e14_1" intLanes=":14_0_0 :14_0_1 :14_2_0 :14_2_1" shape="428.11,260.98 434.50,260.71 434.44,248.17 428.04,248.11 427.92,248.82 427.78,248.95 427.59,248.94 427.34,248.78 427.05,248.47 422.19,252.64 423.77,254.25 426.32,256.35 427.22,257.41 427.83,258.85">
        <request index="0" response="0000" foes="0000" cont="0"/>
        <request index="1" response="0000" foes="0000" cont="0"/>
        <request index="2" response="0000" foes="0000" cont="0"/>
        <request index="3" response="0000" foes="0000" cont="0"/>
    </junction>
    <junction id="2" type="priority" x="801.35" y="53.00" incLanes="e1_0 e1_1 e1_2" intLanes=":2_0_0 :2_0_1 :2_0_2 :2_3_0 :2_3_1" shape="805.16,62.81 805.65,53.22 720.85,47.29 720.40,53.67 720.39,54.01 720.51,63.60">
        <request index="0" response="00000" foes="00000" cont="0"/>
        <request index="1" response="00000" foes="00000" cont="0"/>
        <request index="2" response="00000" foes="00000" cont="0"/>
        <request index="3" response="00000" foes="00000" cont="0"/>
        <request index="4" response="00000" foes="00000" cont="0"/>
    </junction>
    <junction id="3" type="priority" x="640.35" y="55.00" incLanes="e2_0 e2_1 e2_2" intLanes=":3_0_0 :3_0_1 :3_2_0 :3_2_1 :3_2_2" shape="640.15,64.60 640.03,55.00 627.26,54.87 627.17,64.47 627.87,64.58 628.00,64.72 627.98,64.90 627.82,65.14 627.50,65.43 631.54,70.40 633.21,68.84 635.41,66.30 636.51,65.41 637.99,64.83">
        <request index="0" response="00000" foes="00000" cont="0"/>
        <request index="1" response="00000" foes="00000" cont="0"/>
        <request index="2" response="00000" foes="00000" cont="0"/>
        <request index="3" response="00000" foes="00000" cont="0"/>
        <request index="4" response="00000" foes="00000" cont="0"/>
    </junction>
    <junction id="4" type="traffic_light" x="436.35" y="53.00" incLanes="e3_0 e3_1 e3_2 e11_0 e11_1 e15_0 e15_1" intLanes=":4_0_0 :4_0_1 :4_0_2 :4_3_0 :4_3_1 :4_5_0 :4_5_1" shape="429.81,66.82 442.92,66.66 443.33,64.45 443.88,63.67 444.65,63.13 445.65,62.80 446.87,62.70 441.74,44.67 438.48,45.55 435.99,45.94 433.89,45.92 431.77,45.57 429.25,44.96 425.91,44.18 425.86,62.72 428.07,63.16 428.84,63.72 429.39,64.52 429.72,65.55">
        <request index="0" response="0000000" foes="1111000" cont="0"/>
        <request index="1" response="0000000" foes="1111000" cont="0"/>
        <request index="2" response="0000000" foes="1111000" cont="0"/>
        <request index="3" response="0000111" foes="1100111" cont="0"/>
        <request index="4" response="0000111" foes="1100111" cont="0"/>
        <request index="5" response="0011111" foes="0011111" cont="0"/>
        <request index="6" response="0011111" foes="0011111" cont="0"/>
    </junction>
    <junction id="5" type="priority" x="261.35" y="55.00" incLanes="e16_0 e16_1 e4_0 e4_1 e4_2" intLanes=":5_0_0 :5_0_1 :5_2_0 :5_2_1 :5_2_2" shape="265.80,70.03 270.66,65.87 270.21,65.11 270.23,64.84 270.42,64.65 270.77,64.53 271.29,64.49 271.18,54.89 259.53,54.97 259.35,64.56 260.86,65.19 261.86,65.95 263.01,67.01 264.33,68.37">
        <request index="0" response="11100" foes="11100" cont="0"/>
        <request index="1" response="11100" foes="11100" cont="0"/>
        <request index="2" response="00000" foes="00011" cont="0"/>
        <request index="3" response="00000" foes="00011" cont="0"/>
        <request index="4" response="00000" foes="00011" cont="0"/>
    </junction>
    <junction id="6" type="dead_end" x="0.00" y="50.00" incLanes="e5_0 e5_1 e5_2" intLanes="" shape="-0.18,59.60 0.00,50.00"/>
    <junction id="7" type="priority" x="505.35" y="32.00" incLanes="e6_0 e6_1 e17_0 e17_1" intLanes=":7_0_0 :7_1_0 :7_1_1" shape="489.75,37.31 488.45,27.34 486.92,28.38 486.66,29.24 486.42,30.15 485.93,30.95 484.96,31.52 486.82,37.64 487.88,37.34 488.26,37.27 488.65,37.25 489.12,37.27">
        <request index="0" response="110" foes="110" cont="0"/>
        <request index="1" response="000" foes="001" cont="0"/>
        <request index="2" response="000" foes="001" cont="0"/>
    </junction>
    <junction id="8" type="dead_end" x="978.35" y="2.00" incLanes="e8_0 e8_1 e8_2" intLanes="" shape="978.46,-7.60 978.35,2.00"/>
    <junction id="9" type="priority" x="809.35" y="0.00" incLanes="e9_0 e9_1 e7_0 e7_1" intLanes=":9_0_0 :9_0_1 :9_2_0 :9_2_1" shape="813.35,0.05 813.46,-9.55 744.21,-6.40 744.21,0.00 744.24,0.42 744.91,6.78 756.87,5.36 768.15,3.81 779.08,2.32 790.02,1.08 801.33,0.26">
        <request index="0" response="0000" foes="1100" cont="0"/>
        <request index="1" response="0000" foes="1100" cont="0"/>
        <request index="2" response="0011" foes="0011" cont="0"/>
        <request index="3" response="0011" foes="0011" cont="0"/>
    </junction>

    <connection from="e1" to="e2" fromLane="0" toLane="0" via=":2_0_0" dir="s" state="M"/>
    <connection from="e1" to="e2" fromLane="1" toLane="1" via=":2_0_1" dir="s" state="M"/>
    <connection from="e1" to="e2" fromLane="2" toLane="2" via=":2_0_2" dir="s" state="M"/>
    <connection from="e1" to="e6" fromLane="2" toLane="0" via=":2_3_0" dir="s" state="M"/>
    <connection from="e1" to="e6" fromLane="2" toLane="1" via=":2_3_1" dir="s" state="M"/>
    <connection from="e10" to="e9" fromLane="0" toLane="0" via=":10_0_0" dir="s" state="M"/>
    <connection from="e10" to="e9" fromLane="1" toLane="1" via=":10_0_1" dir="s" state="M"/>
    <connection from="e10" to="e11" fromLane="1" toLane="0" via=":10_2_0" dir="L" state="M"/>
    <connection from="e10" to="e11" fromLane="2" toLane="1" via=":10_2_1" dir="L" state="M"/>
    <connection from="e11" to="e18" fromLane="0" toLane="0" via=":4_3_0" tl="4" linkIndex="3" dir="l" state="o"/>
    <connection from="e11" to="e18" fromLane="1" toLane="1" via=":4_3_1" tl="4" linkIndex="4" dir="l" state="o"/>
    <connection from="e12" to="e13" fromLane="0" toLane="0" via=":12_0_0" dir="r" state="m"/>
    <connection from="e12" to="e13" fromLane="1" toLane="1" via=":12_0_1" dir="r" state="m"/>
    <connection from="e13" to="e14" fromLane="1" toLane="1" via=":13_0_0" dir="t" state="M"/>
    <connection from="e14" to="e16" fromLane="0" toLane="0" via=":14_0_0" dir="R" state="M"/>
    <connection from="e14" to="e16" fromLane="0" toLane="1" via=":14_0_1" dir="R" state="M"/>
    <connection from="e14" to="e15" fromLane="0" toLane="0" via=":14_2_0" dir="s" state="M"/>
    <connection from="e14" to="e15" fromLane="1" toLane="1" via=":14_2_1" dir="s" state="M"/>
    <connection from="e15" to="e17" fromLane="0" toLane="0" via=":4_5_0" tl="4" linkIndex="5" dir="l" state="o"/>
    <connection from="e15" to="e17" fromLane="1" toLane="1" via=":4_5_1" tl="4" linkIndex="6" dir="l" state="o"/>
    <connection from="e16" to="e5" fromLane="0" toLane="0" via=":5_0_0" dir="r" state="m"/>
    <connection from="e16" to="e5" fromLane="1" toLane="1" via=":5_0_1" dir="r" state="m"/>
    <connection from="e17" to="e7" fromLane="0" toLane="0" via=":7_1_0" dir="s" state="M"/>
    <connection from="e17" to="e7" fromLane="1" toLane="1" via=":7_1_1" dir="s" state="M"/>
    <connection from="e18" to="e13" fromLane="0" toLane="0" via=":12_2_0" dir="s" state="M"/>
    <connection from="e18" to="e13" fromLane="1" toLane="1" via=":12_2_1" dir="s" state="M"/>
    <connection from="e2" to="e12" fromLane="0" toLane="0" via=":3_0_0" dir="R" state="M"/>
    <connection from="e2" to="e12" fromLane="0" toLane="1" via=":3_0_1" dir="R" state="M"/>
    <connection from="e2" to="e3" fromLane="0" toLane="0" via=":3_2_0" dir="s" state="M"/>
    <connection from="e2" to="e3" fromLane="1" toLane="1" via=":3_2_1" dir="s" state="M"/>
    <connection from="e2" to="e3" fromLane="2" toLane="2" via=":3_2_2" dir="s" state="M"/>
    <connection from="e3" to="e4" fromLane="0" toLane="0" via=":4_0_0" tl="4" linkIndex="0" dir="s" state="O"/>
    <connection from="e3" to="e4" fromLane="1" toLane="1" via=":4_0_1" tl="4" linkIndex="1" dir="s" state="O"/>
    <connection from="e3" to="e4" fromLane="2" toLane="2" via=":4_0_2" tl="4" linkIndex="2" dir="s" state="O"/>
    <connection from="e4" to="e5" fromLane="0" toLane="0" via=":5_2_0" dir="s" state="M"/>
    <connection from="e4" to="e5" fromLane="1" toLane="1" via=":5_2_1" dir="s" state="M"/>
    <connection from="e4" to="e5" fromLane="2" toLane="2" via=":5_2_2" dir="s" state="M"/>
    <connection from="e6" to="e7" fromLane="1" toLane="1" via=":7_0_0" dir="t" state="m"/>
    <connection from="e7" to="e8" fromLane="0" toLane="1" via=":9_2_0" dir="s" state="m"/>
    <connection from="e7" to="e8" fromLane="1" toLane="2" via=":9_2_1" dir="s" state="m"/>
    <connection from="e9" to="e8" fromLane="0" toLane="0" via=":9_0_0" dir="s" state="M"/>
    <connection from="e9" to="e8" fromLane="1" toLane="1" via=":9_0_1" dir="s" state="M"/>

    <connection from=":10_0" to="e9" fromLane="0" toLane="0" dir="s" state="M"/>
    <connection from=":10_0" to="e9" fromLane="1" toLane="1" dir="s" state="M"/>
    <connection from=":10_2" to="e11" fromLane="0" toLane="0" dir="L" state="M"/>
    <connection from=":10_2" to="e11" fromLane="1" toLane="1" dir="L" state="M"/>
    <connection from=":12_0" to="e13" fromLane="0" toLane="0" dir="r" state="M"/>
    <connection from=":12_0" to="e13" fromLane="1" toLane="1" dir="r" state="M"/>
    <connection from=":12_2" to="e13" fromLane="0" toLane="0" dir="s" state="M"/>
    <connection from=":12_2" to="e13" fromLane="1" toLane="1" dir="s" state="M"/>
    <connection from=":13_0" to="e14" fromLane="0" toLane="1" dir="t" state="M"/>
    <connection from=":14_0" to="e16" fromLane="0" toLane="0" dir="R" state="M"/>
    <connection from=":14_0" to="e16" fromLane="1" toLane="1" dir="R" state="M"/>
    <connection from=":14_2" to="e15" fromLane="0" toLane="0" dir="s" state="M"/>
    <connection from=":14_2" to="e15" fromLane="1" toLane="1" dir="s" state="M"/>
    <connection from=":2_0" to="e2" fromLane="0" toLane="0" dir="s" state="M"/>
    <connection from=":2_0" to="e2" fromLane="1" toLane="1" dir="s" state="M"/>
    <connection from=":2_0" to="e2" fromLane="2" toLane="2" dir="s" state="M"/>
    <connection from=":2_3" to="e6" fromLane="0" toLane="0" dir="s" state="M"/>
    <connection from=":2_3" to="e6" fromLane="1" toLane="1" dir="s" state="M"/>
    <connection from=":3_0" to="e12" fromLane="0" toLane="0" dir="R" state="M"/>
    <connection from=":3_0" to="e12" fromLane="1" toLane="1" dir="R" state="M"/>
    <connection from=":3_2" to="e3" fromLane="0" toLane="0" dir="s" state="M"/>
    <connection from=":3_2" to="e3" fromLane="1" toLane="1" dir="s" state="M"/>
    <connection from=":3_2" to="e3" fromLane="2" toLane="2" dir="s" state="M"/>
    <connection from=":4_0" to="e4" fromLane="0" toLane="0" dir="s" state="M"/>
    <connection from=":4_0" to="e4" fromLane="1" toLane="1" dir="s" state="M"/>
    <connection from=":4_0" to="e4" fromLane="2" toLane="2" dir="s" state="M"/>
    <connection from=":4_3" to="e18" fromLane="0" toLane="0" dir="l" state="M"/>
    <connection from=":4_3" to="e18" fromLane="1" toLane="1" dir="l" state="M"/>
    <connection from=":4_5" to="e17" fromLane="0" toLane="0" dir="l" state="M"/>
    <connection from=":4_5" to="e17" fromLane="1" toLane="1" dir="l" state="M"/>
    <connection from=":5_0" to="e5" fromLane="0" toLane="0" dir="r" state="M"/>
    <connection from=":5_0" to="e5" fromLane="1" toLane="1" dir="r" state="M"/>
    <connection from=":5_2" to="e5" fromLane="0" toLane="0" dir="s" state="M"/>
    <connection from=":5_2" to="e5" fromLane="1" toLane="1" dir="s" state="M"/>
    <connection from=":5_2" to="e5" fromLane="2" toLane="2" dir="s" state="M"/>
    <connection from=":7_0" to="e7" fromLane="0" toLane="1" dir="t" state="M"/>
    <connection from=":7_1" to="e7" fromLane="0" toLane="0" dir="s" state="M"/>
    <connection from=":7_1" to="e7" fromLane="1" toLane="1" dir="s" state="M"/>
    <connection from=":9_0" to="e8" fromLane="0" toLane="0" dir="s" state="M"/>
    <connection from=":9_0" to="e8" fromLane="1" toLane="1" dir="s" state="M"/>
    <connection from=":9_2" to="e8" fromLane="0" toLane="1" dir="s" state="M"/>
    <connection from=":9_2" to="e8" fromLane="1" toLane="2" dir="s" state="M"/>

</net>
